test/data/psse.m
function mpc = psse
%CASE12DA  Power flow data for 12 bus distribution system from Das, et al
%   Please see CASEFORMAT for details on the case file format.
%
%   Data from ...
%       D. Das, H.S. Nagi, D.P. Kothari, "Novel method for solving radial
%       distribution networks", IEE Proc. C, Vol. 141, No. 4, pp. 291-298, 1994.

%% MATPOWER Case Format : Version 2
mpc.version = '2';

%%-----  Power Flow Data  -----%%
%% system MVA base
mpc.baseMVA = 100;

%% bus data
%	bus_i	type	Pd	Qd	Gs	Bs	area	Vm	Va	baseKV	zone	Vmax	Vmin
mpc.bus = [
    1	3	 0.0000   0.0000  550.0   650.0   41  1.05    0.00	45.0	51	1.06  0.94
    2	2	87.6528	 67.1056 1053.0  1255.0   71  1.04   -4.98	55.0	81	1.08  0.95
    3	1	10.2000	 12.0000   61.0   425.0    1  1.09  -12.72	65.0	 1	1.06  0.94
    4	1	10.2000  14.0200	0.0    48.0    1  1.01  -10.33	65.0	 1	1.06  0.94
    5   1    0.0000   0.0000    0.0     0.0   41  0.85  -0.001   1.0    51  1.10  0.90
    6   1    0.0000   0.0000    0.0     0.0   41  0.85  -0.001   1.0    51  1.10  0.90
    7   1    0.0000   0.0000    0.0     0.0   41  0.85  -0.001   1.0    51  1.10  0.90
    8   1    0.0000   0.0000    0.0     0.0   41  0.85  -0.001   1.0    51  1.10  0.90
    9   1    0.0000   0.0000    0.0     0.0   41  0.85  -0.001   1.0    51  1.10  0.90
    10  1    0.0000   0.0000    0.0     0.0   41  0.85  -0.001   1.0    51  1.10  0.90
];

%% generator data
%	bus	Pg	Qg	Qmax	Qmin	Vg	mBase	status	Pmax	Pmin	Pc1	Pc2	Qc1min	Qc1max	Qc2min	Qc2max	ramp_agc	ramp_10	ramp_30	ramp_q	apf
mpc.gen = [
    1  232.4  -16.9  10.0  1.0  1.06  100.0  1  332.4  10.0  0.0  0.0  0.0  0.0  0.0  0.0  0.0  0.0  0.0  0.0  0.0
    2  100.4  -18.9  10.0  2.0  1.04  100.0  0  332.4  20.0  0.0  0.0  0.0  0.0  0.0  0.0  0.0  0.0  0.0  0.0  0.0
    2  120.4  -15.9  10.0  2.0  1.03  100.0  1  332.4  20.0  0.0  0.0  0.0  0.0  0.0  0.0  0.0  0.0  0.0  0.0  0.0
];

%% branch data
%	fbus	tbus	r	x	b	rateA	rateB	rateC	ratio	angle	status	angmin	angmax
mpc.branch = [ 
    1	2	1.930000000  5.910000000    5.28	 222.5  300.5  400.5  0.00000000    0.00   1  -360	360
    1	2	2.930000000  3.910000000    2.28	 200.6  300.6  400.6  0.00000000    0.00   0  -360	360
    3	2	0.930000000  4.910000000    1.28	   0.0    0.0	 0.0  0.00000000    0.00   1  -360	360
    3	2	2.630000000  1.210000000    1.28	 200.5  300.1  100.1  0.00000000    0.00   1  -360	360
    2   4   0.033600000  0.049600000    0.00      15.0    0.0    0.0  2.25000000   -0.51   1  -360	360
    2   4   0.000118304  0.000174639    0.00      15.0    0.0    0.0  2.65909000   -0.51   1  -360	360
    2   4   5.915200e-9  0.436598000    0.00      15.0    0.0    0.0  7.97727270   -0.51   0  -360	360
    2   4   0.067200000  0.099200000    0.00      15.0    0.0    0.0  2.25000000   -0.51   0  -360	360
    2   4   3.598810e-9  0.318752000    0.00      15.0    0.0    0.0  2.25000000   -0.51   1  -360	360
    1   5   0.225000000  0.560000000    0.0      350.0    0.0    0.0  0.97000000   -10.0   1  -360	360
    3   5   0.035000000 -0.350000000    0.0       50.0    0.0    0.0  1.00000000     0.0   1  -360	360
    4   5   0.125000000  0.420000000    0.0       50.0    0.0    0.0  0.83000000   -30.0   1  -360	360
    1   6   0.532543000  2.005242165    0.0      350.0    0.0    0.0  0.02155560   -10.0   1  -360	360
    3   6  -0.473848000 -1.957834757    0.0       50.0    0.0    0.0  0.01538460     0.0   1  -360	360
    4   6   0.958582000  2.169905763    0.0       50.0    0.0    0.0  0.01276920   -30.0   1  -360	360
    1   7   4.556040e-9  2.005242165    0.0      350.0    0.0    0.0  0.86222200   -10.0   1  -360	360
    3   7  -4.388340e-9 -1.957834757    0.0       50.0    0.0    0.0  1.23076920     0.0   1  -360	360
    4   7   1.408300e-8  2.169905763    0.0       50.0    0.0    0.0  1.53230760   -30.0   1  -360	360
    1   8  -3.59503e-10  0.572500000    0.0      350.0    0.0    0.0  0.97000000   -10.0   1  -360	360
    3   8   5.71747e-10 -0.512500000    0.0       50.0    0.0    0.0  0.82000000     0.0   1  -360	360
    4   8   5.828250e-9  0.652500000    0.0       50.0    0.0    0.0  0.83000000   -30.0   1  -360	360
    1   9  -4.42514e-10  0.549033000    0.0      350.0    0.0    0.0  0.97000000   -10.0   0  -360	360
    3   9   4.88736e-10 -0.535967000    0.0       50.0    0.0    0.0  0.82000000     0.0   1  -360	360
    4   9   5.911260e-9  0.675967000    0.0       50.0    0.0    0.0  0.83000000   -30.0   1  -360	360
    1  10   0.225000000  0.560000000    0.0      350.0    0.0    0.0  0.02155560   -10.0   1  -360	360
    3  10   0.035000000 -0.350000000    0.0       50.0    0.0    0.0  0.01261540     0.0   0  -360	360
    4  10   0.125000000  0.420000000    0.0       50.0    0.0    0.0  0.00815385   -30.0   1  -360	360
];

%% bus names
mpc.bus_name = {
	'Bus 1 HV';
	'Bus 2';
	'Bus 3 ZV';
	'Bus 4 HV';
    'Bus 5';
    'Bus 6';
    'Bus 7';
    'Bus 8';
    'Bus 9';
    'Bus 10'
};
